ZINC00005088_35
  -OEChem-09201217153D

 32 34  0     0  0  0  0  0  0999 V2000
    1.4531    5.0658   -0.8682 C   0  0  0  0  0  0  0  0  0  0  0  0
    1.5733    6.4469   -0.7139 C   0  0  0  0  0  0  0  0  0  0  0  0
    1.6136    4.4881   -2.1276 C   0  0  0  0  0  0  0  0  0  0  0  0
    1.8538    7.2503   -1.8191 C   0  0  0  0  0  0  0  0  0  0  0  0
    1.8941    5.2915   -3.2329 C   0  0  0  0  0  0  0  0  0  0  0  0
    3.8479   10.6606   -2.1576 C   0  0  0  0  0  0  0  0  0  0  0  0
    5.9373    9.1255   -2.7746 C   0  0  0  0  0  0  0  0  0  0  0  0
    2.0142    6.6726   -3.0786 C   0  0  0  0  0  0  0  0  0  0  0  0
    3.7117    9.6213   -3.0366 C   0  0  0  0  0  0  0  0  0  0  0  0
    6.0905   10.1831   -1.8755 C   0  0  0  0  0  0  0  0  0  0  0  0
    7.0729    8.3830   -3.0361 C   0  0  0  0  0  0  0  0  0  0  0  0
    8.3102    9.6509   -1.6449 C   0  0  0  0  0  0  0  0  0  0  0  0
    2.3998    9.3210   -3.6705 C   0  0  0  0  0  0  0  0  0  0  0  0
    5.0302   10.9436   -1.5773 N   0  0  0  0  0  0  0  0  0  0  0  0
    4.7559    8.8410   -3.3556 N   0  0  0  0  0  0  0  0  0  0  0  0
    7.2757   10.4452   -1.3114 N   0  0  0  0  0  0  0  0  0  0  0  0
    8.2805    8.6144   -2.4902 N   0  0  0  0  0  0  0  0  0  0  0  0
    6.9625    7.2963   -3.9419 N   0  0  0  0  0  0  0  0  0  0  0  0
    9.5516    9.9402   -1.0383 N   0  0  0  0  0  0  0  0  0  0  0  0
    2.3686    7.6898   -4.4775 S   0  0  0  0  0  0  0  0  0  0  0  0
    1.2346    4.4408   -0.0073 H   0  0  0  0  0  0  0  0  0  0  0  0
    1.4480    6.8970    0.2666 H   0  0  0  0  0  0  0  0  0  0  0  0
    1.5200    3.4127   -2.2469 H   0  0  0  0  0  0  0  0  0  0  0  0
    1.9434    8.3248   -1.6792 H   0  0  0  0  0  0  0  0  0  0  0  0
    2.0155    4.8230   -4.2065 H   0  0  0  0  0  0  0  0  0  0  0  0
    3.0221   11.3045   -1.8805 H   0  0  0  0  0  0  0  0  0  0  0  0
    1.5858    9.3527   -2.9292 H   0  0  0  0  0  0  0  0  0  0  0  0
    2.1458   10.0806   -4.4264 H   0  0  0  0  0  0  0  0  0  0  0  0
    6.0678    7.0765   -4.3198 H   0  0  0  0  0  0  0  0  0  0  0  0
    7.7613    6.7241   -4.1032 H   0  0  0  0  0  0  0  0  0  0  0  0
    9.6256   10.7341   -0.4358 H   0  0  0  0  0  0  0  0  0  0  0  0
   10.3550    9.4040   -1.2949 H   0  0  0  0  0  0  0  0  0  0  0  0
  1  2  1  0  0  0  0
  1  3  2  0  0  0  0
  2  4  2  0  0  0  0
  3  5  1  0  0  0  0
  4  8  1  0  0  0  0
  5  8  2  0  0  0  0
  6  9  1  0  0  0  0
  6 14  2  0  0  0  0
  7 10  1  0  0  0  0
  7 11  2  0  0  0  0
  7 15  1  0  0  0  0
  8 20  1  0  0  0  0
  9 13  1  0  0  0  0
  9 15  2  0  0  0  0
 10 14  1  0  0  0  0
 10 16  2  0  0  0  0
 11 17  1  0  0  0  0
 11 18  1  0  0  0  0
 12 16  1  0  0  0  0
 12 17  2  0  0  0  0
 12 19  1  0  0  0  0
 13 20  1  0  0  0  0
  1 21  1  0  0  0  0
  2 22  1  0  0  0  0
  3 23  1  0  0  0  0
  4 24  1  0  0  0  0
  5 25  1  0  0  0  0
  6 26  1  0  0  0  0
 13 27  1  0  0  0  0
 13 28  1  0  0  0  0
 18 29  1  0  0  0  0
 18 30  1  0  0  0  0
 19 31  1  0  0  0  0
 19 32  1  0  0  0  0
M  END
> <ShapeQuery>
methotrexate

> <TanimotoCombo>
1.205 

> <ShapeTanimoto>
0.649 

> <ColorTanimoto>
0.556 

> <RefTversky>
0.645 

> <RefColorTversky>
0.576 

> <RefTverskyCombo>
1.221 

> <FitTversky>
1.010 

> <FitColorTversky>
0.940 

> <FitTverskyCombo>
1.950 

> <ScaledColor>
0.564 

> <ComboScore>
1.213 

> <ColorScore>
-10.721

> <SubTan>
0.000 

> <Overlap>
954.637

> <Rank>
1                   

$$$$
