acetsali_1
  -ISIS-  

 21 21  0  0  1  0  0  0  0  0999 V2000
    0.0042    1.3712    0.2551 C   0  0  0  0  0
    0.0001   -0.0017   -0.0272 C   0  0  0  0  0
    1.2072    2.0810    0.2142 C   0  0  0  0  0
   -1.2545    2.0637    0.5875 C   0  0  0  0  0
    1.1888   -0.6415   -0.3441 C   0  0  0  0  0
   -1.1620   -0.7016    0.0089 O   0  0  0  0  0
    2.3790    1.4290   -0.1026 C   0  0  0  0  0
   -1.2461    3.3836    0.8583 O   0  0  0  0  0
   -2.2992    1.4441    0.6171 O   0  0  0  0  0
    2.3705    0.0720   -0.3815 C   0  0  0  0  0
   -1.1435   -2.0401   -0.1003 C   0  0  0  0  0
   -2.4374   -2.8054   -0.2060 C   0  0  0  0  0
   -0.0895   -2.6306   -0.1137 O   0  0  0  0  0
    1.2184    3.1391    0.4302 H   0  0  0  0  0
    1.1904   -1.6992   -0.5624 H   0  0  0  0  0
    3.3083    1.9785   -0.1343 H   0  0  0  0  0
   -2.0715    3.8378    1.0762 H   0  0  0  0  0
    3.2936   -0.4309   -0.6292 H   0  0  0  0  0
   -2.2236   -3.8712   -0.2864 H   0  0  0  0  0
   -3.0417   -2.6220    0.6824 H   0  0  0  0  0
   -2.9828   -2.4766   -1.0907 H   0  0  0  0  0
  1  2  2  0  0  0  0
  1  3  1  0  0  0  0
  1  4  1  0  0  0  0
  2  5  1  0  0  0  0
  2  6  1  0  0  0  0
  3  7  2  0  0  0  0
  4  8  1  0  0  0  0
  4  9  2  0  0  0  0
  5 10  2  0  0  0  0
  6 11  1  0  0  0  0
  7 10  1  0  0  0  0
 11 12  1  0  0  0  0
 11 13  2  0  0  0  0
 14  3  1  0  0  0  0
 15  5  1  0  0  0  0
 16  7  1  0  0  0  0
 17  8  1  0  0  0  0
 18 10  1  0  0  0  0
 19 12  1  0  0  0  0
 20 12  1  0  0  0  0
 21 12  1  0  0  0  0
M  END
> <Energy>
1.0

> <Color>
red

$$$$
acetsali_2
  -ISIS-  

 21 21  0  0  1  0  0  0  0  0999 V2000
    0.0062    1.3712    0.2551 C   0  0  0  0  0
    0.0001   -0.0017   -0.0272 C   0  0  0  0  0
    1.2072    2.0810    0.2142 C   0  0  0  0  0
   -1.2545    2.0637    0.5875 C   0  0  0  0  0
    1.1888   -0.6415   -0.3441 C   0  0  0  0  0
   -1.1620   -0.7016    0.0089 O   0  0  0  0  0
    2.3790    1.4290   -0.1026 C   0  0  0  0  0
   -1.2461    3.3836    0.8583 O   0  0  0  0  0
   -2.2992    1.4441    0.6171 O   0  0  0  0  0
    2.3705    0.0720   -0.3815 C   0  0  0  0  0
   -1.1435   -2.0401   -0.1003 C   0  0  0  0  0
   -2.4374   -2.8054   -0.2060 C   0  0  0  0  0
   -0.0895   -2.6306   -0.1137 O   0  0  0  0  0
    1.2184    3.1391    0.4302 H   0  0  0  0  0
    1.1904   -1.6992   -0.5624 H   0  0  0  0  0
    3.3083    1.9785   -0.1343 H   0  0  0  0  0
   -2.0715    3.8378    1.0762 H   0  0  0  0  0
    3.2936   -0.4309   -0.6292 H   0  0  0  0  0
   -2.2236   -3.8712   -0.2864 H   0  0  0  0  0
   -3.0417   -2.6220    0.6824 H   0  0  0  0  0
   -2.9828   -2.4766   -1.0907 H   0  0  0  0  0
  1  2  2  0  0  0  0
  1  3  1  0  0  0  0
  1  4  1  0  0  0  0
  2  5  1  0  0  0  0
  2  6  1  0  0  0  0
  3  7  2  0  0  0  0
  4  8  1  0  0  0  0
  4  9  2  0  0  0  0
  5 10  2  0  0  0  0
  6 11  1  0  0  0  0
  7 10  1  0  0  0  0
 11 12  1  0  0  0  0
 11 13  2  0  0  0  0
 14  3  1  0  0  0  0
 15  5  1  0  0  0  0
 16  7  1  0  0  0  0
 17  8  1  0  0  0  0
 18 10  1  0  0  0  0
 19 12  1  0  0  0  0
 20 12  1  0  0  0  0
 21 12  1  0  0  0  0
M  END
> <Energy>
2.5

> <Color>
red

$$$$
acetsali_3
  -ISIS-  

 21 21  0  0  1  0  0  0  0  0999 V2000
    0.0082    1.3712    0.2551 C   0  0  0  0  0
    0.0001   -0.0017   -0.0272 C   0  0  0  0  0
    1.2072    2.0810    0.2142 C   0  0  0  0  0
   -1.2545    2.0637    0.5875 C   0  0  0  0  0
    1.1888   -0.6415   -0.3441 C   0  0  0  0  0
   -1.1620   -0.7016    0.0089 O   0  0  0  0  0
    2.3790    1.4290   -0.1026 C   0  0  0  0  0
   -1.2461    3.3836    0.8583 O   0  0  0  0  0
   -2.2992    1.4441    0.6171 O   0  0  0  0  0
    2.3705    0.0720   -0.3815 C   0  0  0  0  0
   -1.1435   -2.0401   -0.1003 C   0  0  0  0  0
   -2.4374   -2.8054   -0.2060 C   0  0  0  0  0
   -0.0895   -2.6306   -0.1137 O   0  0  0  0  0
    1.2184    3.1391    0.4302 H   0  0  0  0  0
    1.1904   -1.6992   -0.5624 H   0  0  0  0  0
    3.3083    1.9785   -0.1343 H   0  0  0  0  0
   -2.0715    3.8378    1.0762 H   0  0  0  0  0
    3.2936   -0.4309   -0.6292 H   0  0  0  0  0
   -2.2236   -3.8712   -0.2864 H   0  0  0  0  0
   -3.0417   -2.6220    0.6824 H   0  0  0  0  0
   -2.9828   -2.4766   -1.0907 H   0  0  0  0  0
  1  2  2  0  0  0  0
  1  3  1  0  0  0  0
  1  4  1  0  0  0  0
  2  5  1  0  0  0  0
  2  6  1  0  0  0  0
  3  7  2  0  0  0  0
  4  8  1  0  0  0  0
  4  9  2  0  0  0  0
  5 10  2  0  0  0  0
  6 11  1  0  0  0  0
  7 10  1  0  0  0  0
 11 12  1  0  0  0  0
 11 13  2  0  0  0  0
 14  3  1  0  0  0  0
 15  5  1  0  0  0  0
 16  7  1  0  0  0  0
 17  8  1  0  0  0  0
 18 10  1  0  0  0  0
 19 12  1  0  0  0  0
 20 12  1  0  0  0  0
 21 12  1  0  0  0  0
M  END
> <Energy>
1.5

> <Color>
red

$$$$
